*SPEF "ieee 1481-1999"
*DESIGN "router_top"
*DATE "04:34:49 Wednesday July 01, 2026"
*VENDOR "The OpenROAD Project"
*PROGRAM "OpenROAD"
*VERSION "26Q2-2270-g4c26918f5a"
*DESIGN_FLOW "NAME_SCOPE LOCAL" "PIN_CAP NONE"
*DIVIDER /
*DELIMITER :
*BUS_DELIMITER []
*T_UNIT 1 NS
*C_UNIT 1 PF
*R_UNIT 1 OHM
*L_UNIT 1 HENRY

*NAME_MAP
*1 _000_
*2 _001_
*3 _002_
*4 _003_
*5 _004_
*6 _005_
*7 _006_
*8 _007_
*9 _008_
*10 _009_
*11 _010_
*12 _011_
*13 _012_
*14 _013_
*15 _014_
*16 _015_
*17 _016_
*18 _017_
*19 _018_
*20 _019_
*21 _020_
*22 _021_
*23 _022_
*24 _023_
*25 _024_
*26 _025_
*27 _026_
*28 _027_
*29 _028_
*30 _029_
*31 _030_
*32 _031_
*33 _032_
*34 _033_
*35 _034_
*36 _035_
*37 _036_
*38 _037_
*39 _038_
*40 _039_
*41 _040_
*42 _041_
*43 _042_
*44 _043_
*45 _044_
*46 _045_
*47 _046_
*48 _047_
*49 _048_
*50 _049_
*51 _050_
*52 _051_
*53 _052_
*54 _053_
*55 _054_
*56 _055_
*57 _056_
*58 _057_
*59 _058_
*60 _059_
*61 _060_
*62 _061_
*63 _062_
*64 _063_
*65 _064_
*66 _065_
*67 _066_
*68 _067_
*69 _068_
*70 _069_
*71 _070_
*72 _071_
*73 _072_
*74 _073_
*75 _074_
*76 _075_
*77 _076_
*78 _077_
*79 _078_
*80 _079_
*81 _080_
*82 _081_
*83 _082_
*84 _083_
*85 _084_
*86 _085_
*87 _086_
*88 _087_
*89 _088_
*90 _089_
*91 _090_
*92 _091_
*93 _092_
*94 _093_
*95 _094_
*96 _095_
*97 _096_
*98 _097_
*99 _098_
*100 _099_
*101 __dut__\._0000_
*102 __dut__\._0001_
*103 __dut__\._0002_
*104 __dut__\._0003_
*105 __dut__\._0004_
*106 __dut__\._0005_
*107 __dut__\._0006_
*108 __dut__\._0007_
*109 __dut__\._0008_
*110 __dut__\._0009_
*111 __dut__\._0010_
*112 __dut__\._0011_
*113 __dut__\._0012_
*114 __dut__\._0013_
*115 __dut__\._0014_
*116 __dut__\._0015_
*117 __dut__\._0016_
*118 __dut__\._0017_
*119 __dut__\._0018_
*120 __dut__\._0019_
*121 __dut__\._0020_
*122 __dut__\._0021_
*123 __dut__\._0022_
*124 __dut__\._0023_
*125 __dut__\._0024_
*126 __dut__\._0025_
*127 __dut__\._0026_
*128 __dut__\._0027_
*129 __dut__\._0028_
*130 __dut__\._0029_
*131 __dut__\._0030_
*132 __dut__\._0031_
*133 __dut__\._0032_
*134 __dut__\._0033_
*135 __dut__\._0034_
*136 __dut__\._0035_
*137 __dut__\._0036_
*138 __dut__\._0037_
*139 __dut__\._0038_
*140 __dut__\._0039_
*141 __dut__\._0040_
*142 __dut__\._0041_
*143 __dut__\._0042_
*144 __dut__\._0043_
*145 __dut__\._0044_
*146 __dut__\._0045_
*147 __dut__\._0046_
*148 __dut__\._0047_
*149 __dut__\._0048_
*150 __dut__\._0049_
*151 __dut__\._0050_
*152 __dut__\._0051_
*153 __dut__\._0052_
*154 __dut__\._0053_
*155 __dut__\._0054_
*156 __dut__\._0055_
*157 __dut__\._0056_
*158 __dut__\._0057_
*159 __dut__\._0058_
*160 __dut__\._0059_
*161 __dut__\._0060_
*162 __dut__\._0061_
*163 __dut__\._0062_
*164 __dut__\._0063_
*165 __dut__\._0064_
*166 __dut__\._0065_
*167 __dut__\._0066_
*168 __dut__\._0067_
*169 __dut__\._0068_
*170 __dut__\._0069_
*171 __dut__\._0070_
*172 __dut__\._0071_
*173 __dut__\._0072_
*174 __dut__\._0073_
*175 __dut__\._0074_
*176 __dut__\._0075_
*177 __dut__\._0076_
*178 __dut__\._0077_
*179 __dut__\._0078_
*180 __dut__\._0079_
*181 __dut__\._0080_
*182 __dut__\._0081_
*183 __dut__\._0082_
*184 __dut__\._0083_
*185 __dut__\._0084_
*186 __dut__\._0085_
*187 __dut__\._0086_
*188 __dut__\._0087_
*189 __dut__\._0088_
*190 __dut__\._0089_
*191 __dut__\._0090_
*192 __dut__\._0091_
*193 __dut__\._0092_
*194 __dut__\._0093_
*195 __dut__\._0094_
*196 __dut__\._0095_
*197 __dut__\._0096_
*198 __dut__\._0097_
*199 __dut__\._0098_
*200 __dut__\._0099_
*201 __dut__\._0100_
*202 __dut__\._0101_
*203 __dut__\._0102_
*204 __dut__\._0103_
*205 __dut__\._0104_
*206 __dut__\._0105_
*207 __dut__\._0106_
*208 __dut__\._0107_
*209 __dut__\._0108_
*210 __dut__\._0109_
*211 __dut__\._0110_
*212 __dut__\._0111_
*213 __dut__\._0112_
*214 __dut__\._0113_
*215 __dut__\._0114_
*216 __dut__\._0115_
*217 __dut__\._0116_
*218 __dut__\._0117_
*219 __dut__\._0118_
*220 __dut__\._0119_
*221 __dut__\._0120_
*222 __dut__\._0121_
*223 __dut__\._0122_
*224 __dut__\._0123_
*225 __dut__\._0124_
*226 __dut__\._0125_
*227 __dut__\._0126_
*228 __dut__\._0127_
*229 __dut__\._0128_
*230 __dut__\._0129_
*231 __dut__\._0130_
*232 __dut__\._0131_
*233 __dut__\._0132_
*234 __dut__\._0133_
*235 __dut__\._0134_
*236 __dut__\._0135_
*237 __dut__\._0136_
*238 __dut__\._0137_
*239 __dut__\._0138_
*240 __dut__\._0139_
*241 __dut__\._0140_
*242 __dut__\._0141_
*243 __dut__\._0142_
*244 __dut__\._0143_
*245 __dut__\._0144_
*246 __dut__\._0145_
*247 __dut__\._0146_
*248 __dut__\._0147_
*249 __dut__\._0148_
*250 __dut__\._0149_
*251 __dut__\._0150_
*252 __dut__\._0151_
*253 __dut__\._0152_
*254 __dut__\._0153_
*255 __dut__\._0154_
*256 __dut__\._0155_
*257 __dut__\._0156_
*258 __dut__\._0157_
*259 __dut__\._0158_
*260 __dut__\._0159_
*261 __dut__\._0160_
*262 __dut__\._0161_
*263 __dut__\._0162_
*264 __dut__\._0163_
*265 __dut__\._0164_
*266 __dut__\._0165_
*267 __dut__\._0166_
*268 __dut__\._0167_
*269 __dut__\._0168_
*270 __dut__\._0169_
*271 __dut__\._0170_
*272 __dut__\._0171_
*273 __dut__\._0172_
*274 __dut__\._0173_
*275 __dut__\._0174_
*276 __dut__\._0175_
*277 __dut__\._0176_
*278 __dut__\._0177_
*279 __dut__\._0178_
*280 __dut__\._0179_
*281 __dut__\._0180_
*282 __dut__\._0181_
*283 __dut__\._0182_
*284 __dut__\._0183_
*285 __dut__\._0184_
*286 __dut__\._0185_
*287 __dut__\._0186_
*288 __dut__\._0187_
*289 __dut__\._0188_
*290 __dut__\._0189_
*291 __dut__\._0190_
*292 __dut__\._0191_
*293 __dut__\._0192_
*294 __dut__\._0193_
*295 __dut__\._0194_
*296 __dut__\._0195_
*297 __dut__\._0196_
*298 __dut__\._0197_
*299 __dut__\._0198_
*300 __dut__\._0199_
*301 __dut__\._0200_
*302 __dut__\._0201_
*303 __dut__\._0202_
*304 __dut__\._0203_
*305 __dut__\._0204_
*306 __dut__\._0205_
*307 __dut__\._0206_
*308 __dut__\._0207_
*309 __dut__\._0208_
*310 __dut__\._0209_
*311 __dut__\._0210_
*312 __dut__\._0211_
*313 __dut__\._0212_
*314 __dut__\._0213_
*315 __dut__\._0214_
*316 __dut__\._0215_
*317 __dut__\._0216_
*318 __dut__\._0217_
*319 __dut__\._0218_
*320 __dut__\._0219_
*321 __dut__\._0220_
*322 __dut__\._0221_
*323 __dut__\._0222_
*324 __dut__\._0223_
*325 __dut__\._0224_
*326 __dut__\._0225_
*327 __dut__\._0226_
*328 __dut__\._0227_
*329 __dut__\._0228_
*330 __dut__\._0229_
*331 __dut__\._0230_
*332 __dut__\._0231_
*333 __dut__\._0232_
*334 __dut__\._0233_
*335 __dut__\._0234_
*336 __dut__\._0235_
*337 __dut__\._0236_
*338 __dut__\._0237_
*339 __dut__\._0238_
*340 __dut__\._0239_
*341 __dut__\._0240_
*342 __dut__\._0241_
*343 __dut__\._0242_
*344 __dut__\._0243_
*345 __dut__\._0244_
*346 __dut__\._0245_
*347 __dut__\._0246_
*348 __dut__\._0247_
*349 __dut__\._0248_
*350 __dut__\._0249_
*351 __dut__\._0250_
*352 __dut__\._0251_
*353 __dut__\._0252_
*354 __dut__\._0253_
*355 __dut__\._0254_
*356 __dut__\._0255_
*357 __dut__\._0256_
*358 __dut__\._0257_
*359 __dut__\._0258_
*360 __dut__\._0259_
*361 __dut__\._0260_
*362 __dut__\._0261_
*363 __dut__\._0262_
*364 __dut__\._0263_
*365 __dut__\._0264_
*366 __dut__\._0265_
*367 __dut__\._0266_
*368 __dut__\._0267_
*369 __dut__\._0268_
*370 __dut__\._0269_
*371 __dut__\._0270_
*372 __dut__\._0271_
*373 __dut__\._0272_
*374 __dut__\._0273_
*375 __dut__\._0274_
*376 __dut__\._0275_
*377 __dut__\._0276_
*378 __dut__\._0277_
*379 __dut__\._0278_
*380 __dut__\._0279_
*381 __dut__\._0280_
*382 __dut__\._0281_
*383 __dut__\._0282_
*384 __dut__\._0283_
*385 __dut__\._0284_
*386 __dut__\._0285_
*387 __dut__\._0286_
*388 __dut__\._0287_
*389 __dut__\._0288_
*390 __dut__\._0289_
*391 __dut__\._0290_
*392 __dut__\._0291_
*393 __dut__\._0292_
*394 __dut__\._0293_
*395 __dut__\._0294_
*396 __dut__\._0295_
*397 __dut__\._0296_
*398 __dut__\._0297_
*399 __dut__\._0298_
*400 __dut__\._0299_
*401 __dut__\._0300_
*402 __dut__\._0301_
*403 __dut__\._0302_
*404 __dut__\._0303_
*405 __dut__\._0304_
*406 __dut__\._0305_
*407 __dut__\._0306_
*408 __dut__\._0307_
*409 __dut__\._0308_
*410 __dut__\._0309_
*411 __dut__\._0310_
*412 __dut__\._0311_
*413 __dut__\._0312_
*414 __dut__\._0313_
*415 __dut__\._0314_
*416 __dut__\._0315_
*417 __dut__\._0316_
*418 __dut__\._0317_
*419 __dut__\._0318_
*420 __dut__\._0319_
*421 __dut__\._0320_
*422 __dut__\._0321_
*423 __dut__\._0322_
*424 __dut__\._0323_
*425 __dut__\._0324_
*426 __dut__\._0325_
*427 __dut__\._0326_
*428 __dut__\._0327_
*429 __dut__\._0328_
*430 __dut__\._0329_
*431 __dut__\._0330_
*432 __dut__\._0331_
*433 __dut__\._0332_
*434 __dut__\._0333_
*435 __dut__\._0334_
*436 __dut__\._0335_
*437 __dut__\._0336_
*438 __dut__\._0337_
*439 __dut__\._0338_
*440 __dut__\._0339_
*441 __dut__\._0340_
*442 __dut__\._0341_
*443 __dut__\._0342_
*444 __dut__\._0343_
*445 __dut__\._0344_
*446 __dut__\._0345_
*447 __dut__\._0346_
*448 __dut__\._0347_
*449 __dut__\._0348_
*450 __dut__\._0349_
*451 __dut__\._0350_
*452 __dut__\._0351_
*453 __dut__\._0352_
*454 __dut__\._0353_
*455 __dut__\._0354_
*456 __dut__\._0355_
*457 __dut__\._0356_
*458 __dut__\._0357_
*459 __dut__\._0358_
*460 __dut__\._0359_
*461 __dut__\._0360_
*462 __dut__\._0361_
*463 __dut__\._0362_
*464 __dut__\._0363_
*465 __dut__\._0364_
*466 __dut__\._0365_
*467 __dut__\._0366_
*468 __dut__\._0367_
*469 __dut__\._0368_
*470 __dut__\._0369_
*471 __dut__\._0370_
*472 __dut__\._0371_
*473 __dut__\._0372_
*474 __dut__\._0373_
*475 __dut__\._0374_
*476 __dut__\._0375_
*477 __dut__\._0376_
*478 __dut__\._0377_
*479 __dut__\._0378_
*480 __dut__\._0379_
*481 __dut__\._0380_
*482 __dut__\._0381_
*483 __dut__\._0382_
*484 __dut__\._0383_
*485 __dut__\._0384_
*486 __dut__\._0385_
*487 __dut__\._0386_
*488 __dut__\._0387_
*489 __dut__\._0388_
*490 __dut__\._0389_
*491 __dut__\._0390_
*492 __dut__\._0391_
*493 __dut__\._0392_
*494 __dut__\._0393_
*495 __dut__\._0394_
*496 __dut__\._0395_
*497 __dut__\._0396_
*498 __dut__\._0397_
*499 __dut__\._0398_
*500 __dut__\._0399_
*501 __dut__\._0400_
*502 __dut__\._0401_
*503 __dut__\._0402_
*504 __dut__\._0403_
*505 __dut__\._0404_
*506 __dut__\._0405_
*507 __dut__\._0406_
*508 __dut__\._0407_
*509 __dut__\._0408_
*510 __dut__\._0409_
*511 __dut__\._0410_
*512 __dut__\._0411_
*513 __dut__\._0412_
*514 __dut__\._0413_
*515 __dut__\._0414_
*516 __dut__\._0415_
*517 __dut__\._0416_
*518 __dut__\._0417_
*519 __dut__\._0418_
*520 __dut__\._0419_
*521 __dut__\._0420_
*522 __dut__\._0421_
*523 __dut__\._0422_
*524 __dut__\._0423_
*525 __dut__\._0424_
*526 __dut__\._0425_
*527 __dut__\._0426_
*528 __dut__\._0427_
*529 __dut__\._0428_
*530 __dut__\._0429_
*531 __dut__\._0430_
*532 __dut__\._0431_
*533 __dut__\._0432_
*534 __dut__\._0433_
*535 __dut__\._0434_
*536 __dut__\._0435_
*537 __dut__\._0436_
*538 __dut__\._0437_
*539 __dut__\._0438_
*540 __dut__\._0439_
*541 __dut__\._0440_
*542 __dut__\._0441_
*543 __dut__\._0442_
*544 __dut__\._0443_
*545 __dut__\._0444_
*546 __dut__\._0445_
*547 __dut__\._0446_
*548 __dut__\._0447_
*549 __dut__\._0448_
*550 __dut__\._0449_
*551 __dut__\._0450_
*552 __dut__\._0451_
*553 __dut__\._0452_
*554 __dut__\._0453_
*555 __dut__\._0454_
*556 __dut__\._0455_
*557 __dut__\._0456_
*558 __dut__\._0457_
*559 __dut__\._0458_
*560 __dut__\._0459_
*561 __dut__\._0460_
*562 __dut__\._0461_
*563 __dut__\._0462_
*564 __dut__\._0463_
*565 __dut__\._0464_
*566 __dut__\._0465_
*567 __dut__\._0466_
*568 __dut__\._0467_
*569 __dut__\._0468_
*570 __dut__\._0469_
*571 __dut__\._0470_
*572 __dut__\._0471_
*573 __dut__\._0472_
*574 __dut__\._0473_
*575 __dut__\._0474_
*576 __dut__\._0475_
*577 __dut__\._0476_
*578 __dut__\._0477_
*579 __dut__\._0478_
*580 __dut__\._0479_
*581 __dut__\._0480_
*582 __dut__\._0481_
*583 __dut__\._0482_
*584 __dut__\._0483_
*585 __dut__\._0484_
*586 __dut__\._0485_
*587 __dut__\._0486_
*588 __dut__\._0487_
*589 __dut__\._0488_
*590 __dut__\._0489_
*591 __dut__\._0490_
*592 __dut__\._0491_
*593 __dut__\._0492_
*594 __dut__\._0493_
*595 __dut__\._0494_
*596 __dut__\._0495_
*597 __dut__\._0496_
*598 __dut__\._0497_
*599 __dut__\._0498_
*600 __dut__\._0499_
*601 __dut__\._0500_
*602 __dut__\._0501_
*603 __dut__\._0502_
*604 __dut__\._0503_
*605 __dut__\._0504_
*606 __dut__\._0505_
*607 __dut__\._0506_
*608 __dut__\._0507_
*609 __dut__\._0508_
*610 __dut__\._0509_
*611 __dut__\._0510_
*612 __dut__\._0511_
*613 __dut__\._0512_
*614 __dut__\._0513_
*615 __dut__\._0514_
*616 __dut__\._0515_
*617 __dut__\._0516_
*618 __dut__\._0517_
*619 __dut__\._0518_
*620 __dut__\._0519_
*621 __dut__\._0520_
*622 __dut__\._0521_
*623 __dut__\._0522_
*624 __dut__\._0523_
*625 __dut__\._0524_
*626 __dut__\._0525_
*627 __dut__\._0526_
*628 __dut__\._0527_
*629 __dut__\._0528_
*630 __dut__\._0529_
*631 __dut__\._0530_
*632 __dut__\._0531_
*633 __dut__\._0532_
*634 __dut__\._0533_
*635 __dut__\._0534_
*636 __dut__\._0535_
*637 __dut__\._0536_
*638 __dut__\._0537_
*639 __dut__\._0538_
*640 __dut__\._0539_
*641 __dut__\._0540_
*642 __dut__\._0541_
*643 __dut__\._0542_
*644 __dut__\._0543_
*645 __dut__\._0544_
*646 __dut__\._0545_
*647 __dut__\._0546_
*648 __dut__\._0547_
*649 __dut__\._0548_
*650 __dut__\._0549_
*651 __dut__\._0550_
*652 __dut__\._0551_
*653 __dut__\._0552_
*654 __dut__\._0553_
*655 __dut__\._0554_
*656 __dut__\._0555_
*657 __dut__\._0556_
*658 __dut__\._0557_
*659 __dut__\._0558_
*660 __dut__\._0559_
*661 __dut__\._0560_
*662 __dut__\._0561_
*663 __dut__\._0562_
*664 __dut__\._0563_
*665 __dut__\._0564_
*666 __dut__\._0565_
*667 __dut__\._0566_
*668 __dut__\._0567_
*669 __dut__\._0568_
*670 __dut__\._0569_
*671 __dut__\._0570_
*672 __dut__\._0571_
*673 __dut__\._0572_
*674 __dut__\._0573_
*675 __dut__\._0574_
*676 __dut__\._0575_
*677 __dut__\._0576_
*678 __dut__\._0577_
*679 __dut__\._0578_
*680 __dut__\._0579_
*681 __dut__\._0580_
*682 __dut__\._0581_
*683 __dut__\._0582_
*684 __dut__\._0583_
*685 __dut__\._0584_
*686 __dut__\._0585_
*687 __dut__\._0586_
*688 __dut__\._0587_
*689 __dut__\._0588_
*690 __dut__\._0589_
*691 __dut__\._0590_
*692 __dut__\._0591_
*693 __dut__\._0592_
*694 __dut__\._0593_
*695 __dut__\._0594_
*696 __dut__\._0595_
*697 __dut__\._0596_
*698 __dut__\._0597_
*699 __dut__\._0598_
*700 __dut__\._0599_
*701 __dut__\._0600_
*702 __dut__\._0601_
*703 __dut__\._0602_
*704 __dut__\._0603_
*705 __dut__\._0604_
*706 __dut__\._0605_
*707 __dut__\._0606_
*708 __dut__\._0607_
*709 __dut__\._0608_
*710 __dut__\._0609_
*711 __dut__\._0610_
*712 __dut__\._0611_
*713 __dut__\._0612_
*714 __dut__\._0613_
*715 __dut__\._0614_
*716 __dut__\._0615_
*717 __dut__\._0616_
*718 __dut__\._0617_
*719 __dut__\._0618_
*720 __dut__\._0619_
*721 __dut__\._0620_
*722 __dut__\._0621_
*723 __dut__\._0622_
*724 __dut__\._0623_
*725 __dut__\._0624_
*726 __dut__\._0625_
*727 __dut__\._0626_
*728 __dut__\.__BoundaryScanRegister_input__0__\.dout
*729 __dut__\.__BoundaryScanRegister_input__0__\.sout
*730 __dut__\.__BoundaryScanRegister_input__10__\.dout
*731 __dut__\.__BoundaryScanRegister_input__10__\.sin
*732 __dut__\.__BoundaryScanRegister_input__10__\.sout
*733 __dut__\.__BoundaryScanRegister_input__11__\.dout
*734 __dut__\.__BoundaryScanRegister_input__11__\.sout
*735 __dut__\.__BoundaryScanRegister_input__1__\.dout
*736 __dut__\.__BoundaryScanRegister_input__1__\.sout
*737 __dut__\.__BoundaryScanRegister_input__2__\.dout
*738 __dut__\.__BoundaryScanRegister_input__2__\.sout
*739 __dut__\.__BoundaryScanRegister_input__3__\.dout
*740 __dut__\.__BoundaryScanRegister_input__3__\.sout
*741 __dut__\.__BoundaryScanRegister_input__4__\.dout
*742 __dut__\.__BoundaryScanRegister_input__4__\.sout
*743 __dut__\.__BoundaryScanRegister_input__5__\.dout
*744 __dut__\.__BoundaryScanRegister_input__5__\.sout
*745 __dut__\.__BoundaryScanRegister_input__6__\.dout
*746 __dut__\.__BoundaryScanRegister_input__6__\.sout
*747 __dut__\.__BoundaryScanRegister_input__7__\.dout
*748 __dut__\.__BoundaryScanRegister_input__7__\.sout
*749 __dut__\.__BoundaryScanRegister_input__8__\.dout
*750 __dut__\.__BoundaryScanRegister_input__8__\.sout
*751 __dut__\.__BoundaryScanRegister_input__9__\.dout
*752 __dut__\.__BoundaryScanRegister_output__12__\.sin
*753 __dut__\.__BoundaryScanRegister_output__12__\.sout
*754 __dut__\.__BoundaryScanRegister_output__13__\.sout
*755 __dut__\.__BoundaryScanRegister_output__14__\.sout
*756 __dut__\.__BoundaryScanRegister_output__15__\.sout
*757 __dut__\.__BoundaryScanRegister_output__16__\.sout
*758 __dut__\.__BoundaryScanRegister_output__17__\.din
*759 __dut__\.__BoundaryScanRegister_output__17__\.sout
*760 __dut__\.__BoundaryScanRegister_output__18__\.din
*761 __dut__\.__BoundaryScanRegister_output__18__\.sout
*762 __dut__\.__BoundaryScanRegister_output__19__\.din
*763 __dut__\.__BoundaryScanRegister_output__19__\.sout
*764 __dut__\.__BoundaryScanRegister_output__20__\.din
*765 __dut__\.__BoundaryScanRegister_output__20__\.sout
*766 __dut__\.__BoundaryScanRegister_output__21__\.din
*767 __dut__\.__BoundaryScanRegister_output__21__\.sout
*768 __dut__\.__BoundaryScanRegister_output__22__\.din
*769 __dut__\.__BoundaryScanRegister_output__22__\.sout
*770 __dut__\.__BoundaryScanRegister_output__23__\.din
*771 __dut__\.__BoundaryScanRegister_output__23__\.sout
*772 __dut__\.__BoundaryScanRegister_output__24__\.din
*773 __dut__\.__BoundaryScanRegister_output__24__\.sout
*774 __dut__\.__BoundaryScanRegister_output__25__\.din
*775 __dut__\.__BoundaryScanRegister_output__25__\.sout
*776 __dut__\.__BoundaryScanRegister_output__26__\.din
*777 __dut__\.__BoundaryScanRegister_output__26__\.sout
*778 __dut__\.__BoundaryScanRegister_output__27__\.din
*779 __dut__\.__BoundaryScanRegister_output__27__\.sout
*780 __dut__\.__BoundaryScanRegister_output__28__\.din
*781 __dut__\.__BoundaryScanRegister_output__28__\.sout
*782 __dut__\.__BoundaryScanRegister_output__29__\.din
*783 __dut__\.__BoundaryScanRegister_output__29__\.sout
*784 __dut__\.__BoundaryScanRegister_output__30__\.din
*785 __dut__\.__BoundaryScanRegister_output__30__\.sout
*786 __dut__\.__BoundaryScanRegister_output__31__\.din
*787 __dut__\.__BoundaryScanRegister_output__31__\.sout
*788 __dut__\.__BoundaryScanRegister_output__32__\.din
*789 __dut__\.__BoundaryScanRegister_output__32__\.sout
*790 __dut__\.__BoundaryScanRegister_output__33__\.din
*791 __dut__\.__BoundaryScanRegister_output__33__\.sout
*792 __dut__\.__BoundaryScanRegister_output__34__\.din
*793 __dut__\.__BoundaryScanRegister_output__34__\.sout
*794 __dut__\.__BoundaryScanRegister_output__35__\.din
*795 __dut__\.__BoundaryScanRegister_output__35__\.sout
*796 __dut__\.__BoundaryScanRegister_output__36__\.din
*797 __dut__\.__BoundaryScanRegister_output__36__\.sout
*798 __dut__\.__BoundaryScanRegister_output__37__\.din
*799 __dut__\.__BoundaryScanRegister_output__37__\.sout
*800 __dut__\.__BoundaryScanRegister_output__38__\.din
*801 __dut__\.__BoundaryScanRegister_output__38__\.sout
*802 __dut__\.__BoundaryScanRegister_output__39__\.din
*803 __dut__\.__BoundaryScanRegister_output__39__\.sout
*804 __dut__\.__BoundaryScanRegister_output__40__\.din
*805 __dut__\.__uuf__\.FIFO_0\.count\[0\]
*806 __dut__\.__uuf__\.FIFO_0\.count\[1\]
*807 __dut__\.__uuf__\.FIFO_0\.count\[2\]
*808 __dut__\.__uuf__\.FIFO_0\.count\[3\]
*809 __dut__\.__uuf__\.FIFO_0\.count\[4\]
*810 __dut__\.__uuf__\.FIFO_0\.count\[5\]
*811 __dut__\.__uuf__\.FIFO_0\.count\[6\]
*812 __dut__\.__uuf__\.FIFO_0\.data_in\[0\]
*813 __dut__\.__uuf__\.FIFO_0\.data_in\[1\]
*814 __dut__\.__uuf__\.FIFO_0\.data_in\[2\]
*815 __dut__\.__uuf__\.FIFO_0\.data_in\[3\]
*816 __dut__\.__uuf__\.FIFO_0\.data_in\[4\]
*817 __dut__\.__uuf__\.FIFO_0\.data_in\[5\]
*818 __dut__\.__uuf__\.FIFO_0\.data_in\[6\]
*819 __dut__\.__uuf__\.FIFO_0\.data_in\[7\]
*820 __dut__\.__uuf__\.FIFO_0\.lfd_state_t
*821 __dut__\.__uuf__\.FIFO_0\.mem\[0\]\[0\]
*822 __dut__\.__uuf__\.FIFO_0\.mem\[0\]\[1\]
*823 __dut__\.__uuf__\.FIFO_0\.mem\[0\]\[2\]
*824 __dut__\.__uuf__\.FIFO_0\.mem\[0\]\[3\]
*825 __dut__\.__uuf__\.FIFO_0\.mem\[0\]\[4\]
*826 __dut__\.__uuf__\.FIFO_0\.mem\[0\]\[5\]
*827 __dut__\.__uuf__\.FIFO_0\.mem\[0\]\[6\]
*828 __dut__\.__uuf__\.FIFO_0\.mem\[0\]\[7\]
*829 __dut__\.__uuf__\.FIFO_0\.mem\[10\]\[0\]
*830 __dut__\.__uuf__\.FIFO_0\.mem\[10\]\[1\]
*831 __dut__\.__uuf__\.FIFO_0\.mem\[10\]\[2\]
*832 __dut__\.__uuf__\.FIFO_0\.mem\[10\]\[3\]
*833 __dut__\.__uuf__\.FIFO_0\.mem\[10\]\[4\]
*834 __dut__\.__uuf__\.FIFO_0\.mem\[10\]\[5\]
*835 __dut__\.__uuf__\.FIFO_0\.mem\[10\]\[6\]
*836 __dut__\.__uuf__\.FIFO_0\.mem\[10\]\[7\]
*837 __dut__\.__uuf__\.FIFO_0\.mem\[10\]\[8\]
*838 __dut__\.__uuf__\.FIFO_0\.mem\[11\]\[0\]
*839 __dut__\.__uuf__\.FIFO_0\.mem\[11\]\[1\]
*840 __dut__\.__uuf__\.FIFO_0\.mem\[11\]\[2\]
*841 __dut__\.__uuf__\.FIFO_0\.mem\[11\]\[3\]
*842 __dut__\.__uuf__\.FIFO_0\.mem\[11\]\[4\]
*843 __dut__\.__uuf__\.FIFO_0\.mem\[11\]\[5\]
*844 __dut__\.__uuf__\.FIFO_0\.mem\[11\]\[6\]
*845 __dut__\.__uuf__\.FIFO_0\.mem\[11\]\[7\]
*846 __dut__\.__uuf__\.FIFO_0\.mem\[11\]\[8\]
*847 __dut__\.__uuf__\.FIFO_0\.mem\[12\]\[0\]
*848 __dut__\.__uuf__\.FIFO_0\.mem\[12\]\[1\]
*849 __dut__\.__uuf__\.FIFO_0\.mem\[12\]\[2\]
*850 __dut__\.__uuf__\.FIFO_0\.mem\[12\]\[3\]
*851 __dut__\.__uuf__\.FIFO_0\.mem\[12\]\[4\]
*852 __dut__\.__uuf__\.FIFO_0\.mem\[12\]\[5\]
*853 __dut__\.__uuf__\.FIFO_0\.mem\[12\]\[6\]
*854 __dut__\.__uuf__\.FIFO_0\.mem\[12\]\[7\]
*855 __dut__\.__uuf__\.FIFO_0\.mem\[12\]\[8\]
*856 __dut__\.__uuf__\.FIFO_0\.mem\[13\]\[0\]
*857 __dut__\.__uuf__\.FIFO_0\.mem\[13\]\[1\]
*858 __dut__\.__uuf__\.FIFO_0\.mem\[13\]\[2\]
*859 __dut__\.__uuf__\.FIFO_0\.mem\[13\]\[3\]
*860 __dut__\.__uuf__\.FIFO_0\.mem\[13\]\[4\]
*861 __dut__\.__uuf__\.FIFO_0\.mem\[13\]\[5\]
*862 __dut__\.__uuf__\.FIFO_0\.mem\[13\]\[6\]
*863 __dut__\.__uuf__\.FIFO_0\.mem\[13\]\[7\]
*864 __dut__\.__uuf__\.FIFO_0\.mem\[13\]\[8\]
*865 __dut__\.__uuf__\.FIFO_0\.mem\[14\]\[0\]
*866 __dut__\.__uuf__\.FIFO_0\.mem\[14\]\[1\]
*867 __dut__\.__uuf__\.FIFO_0\.mem\[14\]\[2\]
*868 __dut__\.__uuf__\.FIFO_0\.mem\[14\]\[3\]
*869 __dut__\.__uuf__\.FIFO_0\.mem\[14\]\[4\]
*870 __dut__\.__uuf__\.FIFO_0\.mem\[14\]\[5\]
*871 __dut__\.__uuf__\.FIFO_0\.mem\[14\]\[6\]
*872 __dut__\.__uuf__\.FIFO_0\.mem\[14\]\[7\]
*873 __dut__\.__uuf__\.FIFO_0\.mem\[14\]\[8\]
*874 __dut__\.__uuf__\.FIFO_0\.mem\[15\]\[0\]
*875 __dut__\.__uuf__\.FIFO_0\.mem\[15\]\[1\]
*876 __dut__\.__uuf__\.FIFO_0\.mem\[15\]\[2\]
*877 __dut__\.__uuf__\.FIFO_0\.mem\[15\]\[3\]
*878 __dut__\.__uuf__\.FIFO_0\.mem\[15\]\[4\]
*879 __dut__\.__uuf__\.FIFO_0\.mem\[15\]\[5\]
*880 __dut__\.__uuf__\.FIFO_0\.mem\[15\]\[6\]
*881 __dut__\.__uuf__\.FIFO_0\.mem\[15\]\[7\]
*882 __dut__\.__uuf__\.FIFO_0\.mem\[15\]\[8\]
*883 __dut__\.__uuf__\.FIFO_0\.mem\[1\]\[0\]
*884 __dut__\.__uuf__\.FIFO_0\.mem\[1\]\[1\]
*885 __dut__\.__uuf__\.FIFO_0\.mem\[1\]\[2\]
*886 __dut__\.__uuf__\.FIFO_0\.mem\[1\]\[3\]
*887 __dut__\.__uuf__\.FIFO_0\.mem\[1\]\[4\]
*888 __dut__\.__uuf__\.FIFO_0\.mem\[1\]\[5\]
*889 __dut__\.__uuf__\.FIFO_0\.mem\[1\]\[6\]
*890 __dut__\.__uuf__\.FIFO_0\.mem\[1\]\[7\]
*891 __dut__\.__uuf__\.FIFO_0\.mem\[1\]\[8\]
*892 __dut__\.__uuf__\.FIFO_0\.mem\[2\]\[0\]
*893 __dut__\.__uuf__\.FIFO_0\.mem\[2\]\[1\]
*894 __dut__\.__uuf__\.FIFO_0\.mem\[2\]\[2\]
*895 __dut__\.__uuf__\.FIFO_0\.mem\[2\]\[3\]
*896 __dut__\.__uuf__\.FIFO_0\.mem\[2\]\[4\]
*897 __dut__\.__uuf__\.FIFO_0\.mem\[2\]\[5\]
*898 __dut__\.__uuf__\.FIFO_0\.mem\[2\]\[6\]
*899 __dut__\.__uuf__\.FIFO_0\.mem\[2\]\[7\]
*900 __dut__\.__uuf__\.FIFO_0\.mem\[2\]\[8\]
*901 __dut__\.__uuf__\.FIFO_0\.mem\[3\]\[0\]
*902 __dut__\.__uuf__\.FIFO_0\.mem\[3\]\[1\]
*903 __dut__\.__uuf__\.FIFO_0\.mem\[3\]\[2\]
*904 __dut__\.__uuf__\.FIFO_0\.mem\[3\]\[3\]
*905 __dut__\.__uuf__\.FIFO_0\.mem\[3\]\[4\]
*906 __dut__\.__uuf__\.FIFO_0\.mem\[3\]\[5\]
*907 __dut__\.__uuf__\.FIFO_0\.mem\[3\]\[6\]
*908 __dut__\.__uuf__\.FIFO_0\.mem\[3\]\[7\]
*909 __dut__\.__uuf__\.FIFO_0\.mem\[3\]\[8\]
*910 __dut__\.__uuf__\.FIFO_0\.mem\[4\]\[0\]
*911 __dut__\.__uuf__\.FIFO_0\.mem\[4\]\[1\]
*912 __dut__\.__uuf__\.FIFO_0\.mem\[4\]\[2\]
*913 __dut__\.__uuf__\.FIFO_0\.mem\[4\]\[3\]
*914 __dut__\.__uuf__\.FIFO_0\.mem\[4\]\[4\]
*915 __dut__\.__uuf__\.FIFO_0\.mem\[4\]\[5\]
*916 __dut__\.__uuf__\.FIFO_0\.mem\[4\]\[6\]
*917 __dut__\.__uuf__\.FIFO_0\.mem\[4\]\[7\]
*918 __dut__\.__uuf__\.FIFO_0\.mem\[4\]\[8\]
*919 __dut__\.__uuf__\.FIFO_0\.mem\[5\]\[0\]
*920 __dut__\.__uuf__\.FIFO_0\.mem\[5\]\[1\]
*921 __dut__\.__uuf__\.FIFO_0\.mem\[5\]\[2\]
*922 __dut__\.__uuf__\.FIFO_0\.mem\[5\]\[3\]
*923 __dut__\.__uuf__\.FIFO_0\.mem\[5\]\[4\]
*924 __dut__\.__uuf__\.FIFO_0\.mem\[5\]\[5\]
*925 __dut__\.__uuf__\.FIFO_0\.mem\[5\]\[6\]
*926 __dut__\.__uuf__\.FIFO_0\.mem\[5\]\[7\]
*927 __dut__\.__uuf__\.FIFO_0\.mem\[5\]\[8\]
*928 __dut__\.__uuf__\.FIFO_0\.mem\[6\]\[0\]
*929 __dut__\.__uuf__\.FIFO_0\.mem\[6\]\[1\]
*930 __dut__\.__uuf__\.FIFO_0\.mem\[6\]\[2\]
*931 __dut__\.__uuf__\.FIFO_0\.mem\[6\]\[3\]
*932 __dut__\.__uuf__\.FIFO_0\.mem\[6\]\[4\]
*933 __dut__\.__uuf__\.FIFO_0\.mem\[6\]\[5\]
*934 __dut__\.__uuf__\.FIFO_0\.mem\[6\]\[6\]
*935 __dut__\.__uuf__\.FIFO_0\.mem\[6\]\[7\]
*936 __dut__\.__uuf__\.FIFO_0\.mem\[6\]\[8\]
*937 __dut__\.__uuf__\.FIFO_0\.mem\[7\]\[0\]
*938 __dut__\.__uuf__\.FIFO_0\.mem\[7\]\[1\]
*939 __dut__\.__uuf__\.FIFO_0\.mem\[7\]\[2\]
*940 __dut__\.__uuf__\.FIFO_0\.mem\[7\]\[3\]
*941 __dut__\.__uuf__\.FIFO_0\.mem\[7\]\[4\]
*942 __dut__\.__uuf__\.FIFO_0\.mem\[7\]\[5\]
*943 __dut__\.__uuf__\.FIFO_0\.mem\[7\]\[6\]
*944 __dut__\.__uuf__\.FIFO_0\.mem\[7\]\[7\]
*945 __dut__\.__uuf__\.FIFO_0\.mem\[7\]\[8\]
*946 __dut__\.__uuf__\.FIFO_0\.mem\[8\]\[0\]
*947 __dut__\.__uuf__\.FIFO_0\.mem\[8\]\[1\]
*948 __dut__\.__uuf__\.FIFO_0\.mem\[8\]\[2\]
*949 __dut__\.__uuf__\.FIFO_0\.mem\[8\]\[3\]
*950 __dut__\.__uuf__\.FIFO_0\.mem\[8\]\[4\]
*951 __dut__\.__uuf__\.FIFO_0\.mem\[8\]\[5\]
*952 __dut__\.__uuf__\.FIFO_0\.mem\[8\]\[6\]
*953 __dut__\.__uuf__\.FIFO_0\.mem\[8\]\[7\]
*954 __dut__\.__uuf__\.FIFO_0\.mem\[8\]\[8\]
*955 __dut__\.__uuf__\.FIFO_0\.mem\[9\]\[0\]
*956 __dut__\.__uuf__\.FIFO_0\.mem\[9\]\[1\]
*957 __dut__\.__uuf__\.FIFO_0\.mem\[9\]\[2\]
*958 __dut__\.__uuf__\.FIFO_0\.mem\[9\]\[3\]
*959 __dut__\.__uuf__\.FIFO_0\.mem\[9\]\[4\]
*960 __dut__\.__uuf__\.FIFO_0\.mem\[9\]\[5\]
*961 __dut__\.__uuf__\.FIFO_0\.mem\[9\]\[6\]
*962 __dut__\.__uuf__\.FIFO_0\.mem\[9\]\[7\]
*963 __dut__\.__uuf__\.FIFO_0\.mem\[9\]\[8\]
*964 __dut__\.__uuf__\.FIFO_0\.rd_pointer\[0\]
*965 __dut__\.__uuf__\.FIFO_0\.rd_pointer\[1\]
*966 __dut__\.__uuf__\.FIFO_0\.rd_pointer\[2\]
*967 __dut__\.__uuf__\.FIFO_0\.rd_pointer\[3\]
*968 __dut__\.__uuf__\.FIFO_0\.rd_pointer\[4\]
*969 __dut__\.__uuf__\.FIFO_0\.soft_reset
*970 __dut__\.__uuf__\.FIFO_0\.wr_pointer\[0\]
*971 __dut__\.__uuf__\.FIFO_0\.wr_pointer\[1\]
*972 __dut__\.__uuf__\.FIFO_0\.wr_pointer\[2\]
*973 __dut__\.__uuf__\.FIFO_0\.wr_pointer\[3\]
*974 __dut__\.__uuf__\.FIFO_0\.wr_pointer\[4\]
*975 __dut__\.__uuf__\.FIFO_1\.count\[0\]
*976 __dut__\.__uuf__\.FIFO_1\.count\[1\]
*977 __dut__\.__uuf__\.FIFO_1\.count\[2\]
*978 __dut__\.__uuf__\.FIFO_1\.count\[3\]
*979 __dut__\.__uuf__\.FIFO_1\.count\[4\]
*980 __dut__\.__uuf__\.FIFO_1\.count\[5\]
*981 __dut__\.__uuf__\.FIFO_1\.count\[6\]
*982 __dut__\.__uuf__\.FIFO_1\.mem\[0\]\[0\]
*983 __dut__\.__uuf__\.FIFO_1\.mem\[0\]\[1\]
*984 __dut__\.__uuf__\.FIFO_1\.mem\[0\]\[2\]
*985 __dut__\.__uuf__\.FIFO_1\.mem\[0\]\[3\]
*986 __dut__\.__uuf__\.FIFO_1\.mem\[0\]\[4\]
*987 __dut__\.__uuf__\.FIFO_1\.mem\[0\]\[5\]
*988 __dut__\.__uuf__\.FIFO_1\.mem\[0\]\[6\]
*989 __dut__\.__uuf__\.FIFO_1\.mem\[0\]\[7\]
*990 __dut__\.__uuf__\.FIFO_1\.mem\[0\]\[8\]
*991 __dut__\.__uuf__\.FIFO_1\.mem\[10\]\[0\]
*992 __dut__\.__uuf__\.FIFO_1\.mem\[10\]\[1\]
*993 __dut__\.__uuf__\.FIFO_1\.mem\[10\]\[2\]
*994 __dut__\.__uuf__\.FIFO_1\.mem\[10\]\[3\]
*995 __dut__\.__uuf__\.FIFO_1\.mem\[10\]\[4\]
*996 __dut__\.__uuf__\.FIFO_1\.mem\[10\]\[5\]
*997 __dut__\.__uuf__\.FIFO_1\.mem\[10\]\[6\]
*998 __dut__\.__uuf__\.FIFO_1\.mem\[10\]\[7\]
*999 __dut__\.__uuf__\.FIFO_1\.mem\[10\]\[8\]
*1000 __dut__\.__uuf__\.FIFO_1\.mem\[11\]\[0\]
*1001 __dut__\.__uuf__\.FIFO_1\.mem\[11\]\[1\]
*1002 __dut__\.__uuf__\.FIFO_1\.mem\[11\]\[2\]
*1003 __dut__\.__uuf__\.FIFO_1\.mem\[11\]\[3\]
*1004 __dut__\.__uuf__\.FIFO_1\.mem\[11\]\[4\]
*1005 __dut__\.__uuf__\.FIFO_1\.mem\[11\]\[5\]
*1006 __dut__\.__uuf__\.FIFO_1\.mem\[11\]\[6\]
*1007 __dut__\.__uuf__\.FIFO_1\.mem\[11\]\[7\]
*1008 __dut__\.__uuf__\.FIFO_1\.mem\[11\]\[8\]
*1009 __dut__\.__uuf__\.FIFO_1\.mem\[12\]\[0\]
*1010 __dut__\.__uuf__\.FIFO_1\.mem\[12\]\[1\]
*1011 __dut__\.__uuf__\.FIFO_1\.mem\[12\]\[2\]
*1012 __dut__\.__uuf__\.FIFO_1\.mem\[12\]\[3\]
*1013 __dut__\.__uuf__\.FIFO_1\.mem\[12\]\[4\]
*1014 __dut__\.__uuf__\.FIFO_1\.mem\[12\]\[5\]
*1015 __dut__\.__uuf__\.FIFO_1\.mem\[12\]\[6\]
*1016 __dut__\.__uuf__\.FIFO_1\.mem\[12\]\[7\]
*1017 __dut__\.__uuf__\.FIFO_1\.mem\[12\]\[8\]
*1018 __dut__\.__uuf__\.FIFO_1\.mem\[13\]\[0\]
*1019 __dut__\.__uuf__\.FIFO_1\.mem\[13\]\[1\]
*1020 __dut__\.__uuf__\.FIFO_1\.mem\[13\]\[2\]
*1021 __dut__\.__uuf__\.FIFO_1\.mem\[13\]\[3\]
*1022 __dut__\.__uuf__\.FIFO_1\.mem\[13\]\[4\]
*1023 __dut__\.__uuf__\.FIFO_1\.mem\[13\]\[5\]
*1024 __dut__\.__uuf__\.FIFO_1\.mem\[13\]\[6\]
*1025 __dut__\.__uuf__\.FIFO_1\.mem\[13\]\[7\]
*1026 __dut__\.__uuf__\.FIFO_1\.mem\[13\]\[8\]
*1027 __dut__\.__uuf__\.FIFO_1\.mem\[14\]\[0\]
*1028 __dut__\.__uuf__\.FIFO_1\.mem\[14\]\[1\]
*1029 __dut__\.__uuf__\.FIFO_1\.mem\[14\]\[2\]
*1030 __dut__\.__uuf__\.FIFO_1\.mem\[14\]\[3\]
*1031 __dut__\.__uuf__\.FIFO_1\.mem\[14\]\[4\]
*1032 __dut__\.__uuf__\.FIFO_1\.mem\[14\]\[5\]
*1033 __dut__\.__uuf__\.FIFO_1\.mem\[14\]\[6\]
*1034 __dut__\.__uuf__\.FIFO_1\.mem\[14\]\[7\]
*1035 __dut__\.__uuf__\.FIFO_1\.mem\[14\]\[8\]
*1036 __dut__\.__uuf__\.FIFO_1\.mem\[15\]\[0\]
*1037 __dut__\.__uuf__\.FIFO_1\.mem\[15\]\[1\]
*1038 __dut__\.__uuf__\.FIFO_1\.mem\[15\]\[2\]
*1039 __dut__\.__uuf__\.FIFO_1\.mem\[15\]\[3\]
*1040 __dut__\.__uuf__\.FIFO_1\.mem\[15\]\[4\]
*1041 __dut__\.__uuf__\.FIFO_1\.mem\[15\]\[5\]
*1042 __dut__\.__uuf__\.FIFO_1\.mem\[15\]\[6\]
*1043 __dut__\.__uuf__\.FIFO_1\.mem\[15\]\[7\]
*1044 __dut__\.__uuf__\.FIFO_1\.mem\[15\]\[8\]
*1045 __dut__\.__uuf__\.FIFO_1\.mem\[1\]\[0\]
*1046 __dut__\.__uuf__\.FIFO_1\.mem\[1\]\[1\]
*1047 __dut__\.__uuf__\.FIFO_1\.mem\[1\]\[2\]
*1048 __dut__\.__uuf__\.FIFO_1\.mem\[1\]\[3\]
*1049 __dut__\.__uuf__\.FIFO_1\.mem\[1\]\[4\]
*1050 __dut__\.__uuf__\.FIFO_1\.mem\[1\]\[5\]
*1051 __dut__\.__uuf__\.FIFO_1\.mem\[1\]\[6\]